<?xml version="1.0" encoding="UTF-8" standalone="yes"?>
<trips>
    <trip>
        <name>New Fun Trip with invalid date (O instead of 0)</name>
        <pricePerDay>20.5</pricePerDay>
        <startDate>2015-1O-15</startDate>
        <endDate>2015-10-23</endDate>
        <flights>
            <flightId>1</flightId>
            <flightId>2</flightId>
        </flights>
    </trip>
    <trip>
        <name>Best Trip Ever with invalid price (O instead of 0)</name>
        <pricePerDay>8O.5</pricePerDay>
        <startDate>2015-10-14</startDate>
        <endDate>2015-10-25</endDate>
        <flights>
            <flightId>1</flightId>
        </flights>
    </trip>
    <trip>
        <name>Also a cool trip with invalid flightId (X)</name>
        <pricePerDay>10</pricePerDay>
        <startDate>2015-10-22</startDate>
        <endDate>2015-10-23</endDate>
        <flights>
            <flightId>2X</flightId>
        </flights>
    </trip>
</trips>
